THE REGION 125-145K FOR T AND P GREATER THAN 10 ATM
YIELDS POOR RESULTS FOR THE DERIVED PROEPRTIES--BEWARE. 

THERMODYNAMIC AND TRANSPORT PROPERTIES FOR FLUORINE PC=54ATM,TC=144.31K,RHOC=.3974G/CC    
TEMPERATURE ENTROPY DIAGRAM FOR FLUORINE
  2.199  80.000
  4.331  85.000
  4.377  90.000
  4.421  95.000
  4.462 100.000
  4.500 105.000
  4.537 110.000
  4.572 115.000
  4.605 120.000
  4.637 125.000
  4.668 130.000
  4.697 135.000
  4.725 140.000
  4.753 145.000
  2.196  80.000
  2.286  85.000
  2.370  90.000
  2.450  95.000
  2.527 100.000
  2.603 105.000
  2.678 110.000
  4.007 115.000
  4.049 120.000
  4.089 125.000
  4.125 130.000
  4.159 135.000
  4.191 140.000
  4.222 145.000
  2.193  80.000
  2.283  85.000
  2.367  90.000
  2.446  95.000
  2.523 100.000
  2.598 105.000
  2.673 110.000
  2.748 115.000
  2.825 120.000
  3.865 125.000
  3.915 130.000
  3.959 135.000
  3.998 140.000
  4.035 145.000
  2.191  80.000
  2.280  85.000
  2.363  90.000
  2.442  95.000
  2.519 100.000
  2.593 105.000
  2.668 110.000
  2.742 115.000
  2.817 120.000
  2.894 125.000
  2.975 130.000
  3.798 135.000
  3.854 140.000
  3.901 145.000
  2.188  80.000
  2.277  85.000
  2.360  90.000
  2.439  95.000
  2.515 100.000
  2.589 105.000
  2.662 110.000
  2.736 115.000
  2.810 120.000
  2.885 125.000
  2.962 130.000
  3.047 135.000
  3.698 140.000
  3.774 145.000
  144.3    IS OUT OF RANGE FOR T  IN SUB.-ENT   
  144.3    IS OUT OF RANGE FOR T  IN SUB.-DENS  
  2.184  80.000
  2.273  85.000
  2.356  90.000
  2.435  95.000
  2.510 100.000
  2.584 105.000
  2.657 110.000
  2.729 115.000
  2.802 120.000
  2.874 125.000
  2.948 130.000
  3.026 135.000
  3.120 140.000
  3.531 145.000
  2.182  80.000
  2.271  85.000
  2.354  90.000
  2.432  95.000
  2.507 100.000
  2.581 105.000
  2.653 110.000
  2.725 115.000
  2.797 120.000
  2.868 125.000
  2.940 130.000
  3.015 135.000
  3.100 140.000
  3.224 145.000
  2.180  80.000
  2.268  85.000
  2.351  90.000
  2.429  95.000
  2.504 100.000
  2.576 105.000
  2.648 110.000
  2.720 115.000
  2.791 120.000
  2.861 125.000
  2.931 130.000
  3.002 135.000
  3.081 140.000
  3.178 145.000
  2.177  80.000
  2.265  85.000
  2.348  90.000
  2.425  95.000
  2.500 100.000
  2.572 105.000
  2.644 110.000
  2.715 115.000
  2.785 120.000
  2.854 125.000
  2.922 130.000
  2.991 135.000
  3.065 140.000
  3.151 145.000
  2.172  80.000
  2.260  85.000
  2.342  90.000
  2.419  95.000
  2.493 100.000
  2.565 105.000
  2.635 110.000
  2.705 115.000
  2.774 120.000
  2.841 125.000
  2.907 130.000
  2.972 135.000
  3.040 140.000
  3.115 145.000
